15
-509.15833524835722
C 2.11490933 1.18877628 0.00108890
C 2.76906836 -0.05307683 -0.00894889
C 2.04310164 -1.25049847 -0.00299674
C 0.66640828 -1.22556708 0.01290694
C 0.00008069 -0.00326301 0.02324795
C 0.71476623 1.18505669 0.01744887
H 2.58029131 -2.18420653 -0.01105019
H 0.11285937 -2.15358369 0.01755845
H -1.08083983 0.02552785 0.03581784
H 0.21570769 2.14289728 0.02518507
O 2.70712105 2.39085970 -0.00303649
H 3.64980387 2.28963179 -0.01701701
N 4.22180970 -0.14830194 -0.02559816
O 4.86548726 0.87163977 -0.03659834
O 4.71972503 -1.23539179 -0.02790817