15
-509.15833524835722
C 2.11485792 1.18871960 0.00108930
C 2.76911010 -0.05309242 -0.00894949
C 2.04304367 -1.25050154 -0.00299606
C 0.66643873 -1.22550370 0.01290647
C 0.00007513 -0.00334380 0.02324775
C 0.71478225 1.18508782 0.01744894
H 2.58028998 -2.18421024 -0.01105029
H 0.11285497 -2.15358849 0.01755869
H -1.08084481 0.02552342 0.03581790
H 0.21570377 2.14289836 0.02518503
O 2.70715726 2.39093247 -0.00303655
H 3.64980418 2.28963516 -0.01701701
N 4.22167883 -0.14829441 -0.02559630
O 4.86556429 0.87172877 -0.03659993
O 4.71978373 -1.23549098 -0.02790844
