15
terachem gradient in au, energy -509.1372542508 , grad_rms 0.007071 , grad_max 0.013110 on atom 13
 C      -0.0051414023      -0.0056678765      0.0000403282
 C       0.0041740896      -0.0015585612     -0.0000599040
 C      -0.0057969781      -0.0003067091      0.0000684271
 C       0.0030445296       0.0063377228     -0.0000471803
 C      -0.0005560786      -0.0080786432     -0.0000198173
 C       0.0016019695       0.0031126512      0.0000068378
 H      -0.0001329193      -0.0003711688     -0.0000096376
 H      -0.0004403884      -0.0004796487      0.0000244701
 H      -0.0004978322      -0.0004427996      0.0000063398
 H      -0.0003922250       0.0001078110     -0.0000042647
 O       0.0036208690       0.0072765005     -0.0000058419
 H       0.0000309330       0.0003370140     -0.0000002264
 N      -0.0130870934       0.0007534484      0.0001863268
 O       0.0077025838       0.0088995289     -0.0001589697
 O       0.0058699428      -0.0099192697     -0.0000268876
