12
terachem gradient in au, energy -412.1847992221 , grad_rms 0.130306 , grad_max 0.269579 on atom 6
 N       0.1170587615      -0.0015779422     -0.0368537525
 N      -0.0621698173       0.0212128335      0.0158180240
 C      -0.0890782760       0.0465554222      0.0033001731
 C       0.0387792704      -0.1062694634      0.0098114888
 C       0.1019421841      -0.0256040267     -0.0128291796
 C      -0.1674105951      -0.2107605481     -0.0150447661
 O       0.1206311941       0.1889051437      0.0157317703
 O       0.0511471007      -0.0484607856     -0.0044363900
 H      -0.0939818266       0.0188330891      0.0321409366
 H       0.0516085957       0.0604497060     -0.0060962918
 H      -0.0395601348       0.0053565712     -0.0085246929
 H      -0.0289664568       0.0513600002      0.0069826802
